IJAU11/CargasBT_DO09_2022124950_IJAU11_--MBS-1--T--.dss
New "Load.BT_1013320_1_M1" bus1="1001013320.1.2.3.4" phases=3 conn=Delta model=2 kv=0.220000000 kw = 0.0588285 pf=0.92 status=variable vmaxpu=1.5 vminpu=0.92 daily="COM1_13_DO"  
New "Load.BT_1013320_1_M2" bus1="1001013320.1.2.3.4" phases=3 conn=Delta model=3 kv=0.220000000 kw = 0.0588285 pf=0.92 status=variable vmaxpu=1.5 vminpu=0.92 daily="COM1_13_DO" 
New "Load.BT_1036595_M1" bus1="1001036595.1.2.4" phases=1 conn=Delta model=2 kv=0.220000000 kw = 1.079492 pf=0.92 status=variable vmaxpu=1.5 vminpu=0.92 daily="RES1_19_DO"  
New "Load.BT_1036595_M2" bus1="1001036595.1.2.4" phases=1 conn=Delta model=3 kv=0.220000000 kw = 1.079492 pf=0.92 status=variable vmaxpu=1.5 vminpu=0.92 daily="RES1_19_DO" 
New "Load.BT_4857615_1_M1" bus1="1004857615.1.2.3.4" phases=3 conn=Delta model=2 kv=0.220000000 kw = 1.265899 pf=0.92 status=variable vmaxpu=1.5 vminpu=0.92 daily="RES1_13_DO"  
New "Load.BT_4857615_1_M2" bus1="1004857615.1.2.3.4" phases=3 conn=Delta model=3 kv=0.220000000 kw = 1.265899 pf=0.92 status=variable vmaxpu=1.5 vminpu=0.92 daily="RES1_13_DO" 
New "Load.BT_1024940_1_M1" bus1="1001024940.1.2.3.4" phases=3 conn=Delta model=2 kv=0.220000000 kw = 0.127865 pf=0.92 status=variable vmaxpu=1.5 vminpu=0.92 daily="RES1_2_DO"  
New "Load.BT_1024940_1_M2" bus1="1001024940.1.2.3.4" phases=3 conn=Delta model=3 kv=0.220000000 kw = 0.127865 pf=0.92 status=variable vmaxpu=1.5 vminpu=0.92 daily="RES1_2_DO" 
New "Load.BT_1014356_1_M1" bus1="1001014356.1.4" phases=1 conn=Wye model=2 kv=0.220000000 kw = 0.104143 pf=0.92 status=variable vmaxpu=1.5 vminpu=0.92 daily="RES1_26_DO"  
New "Load.BT_1014356_1_M2" bus1="1001014356.1.4" phases=1 conn=Wye model=3 kv=0.220000000 kw = 0.104143 pf=0.92 status=variable vmaxpu=1.5 vminpu=0.92 daily="RES1_26_DO" 
New "Load.BT_1041236_1_M1" bus1="1001041236.1.2.3.4" phases=3 conn=Delta model=2 kv=0.220000000 kw = 0.442442 pf=0.92 status=variable vmaxpu=1.5 vminpu=0.92 daily="RES1_3_DO"  
New "Load.BT_1041236_1_M2" bus1="1001041236.1.2.3.4" phases=3 conn=Delta model=3 kv=0.220000000 kw = 0.442442 pf=0.92 status=variable vmaxpu=1.5 vminpu=0.92 daily="RES1_3_DO" 
New "Load.BT_1011843_M1" bus1="1001011843.3.4" phases=1 conn=Wye model=2 kv=0.220000000 kw = 0.394693 pf=0.92 status=variable vmaxpu=1.5 vminpu=0.92 daily="RES1_26_DO"  
New "Load.BT_1011843_M2" bus1="1001011843.3.4" phases=1 conn=Wye model=3 kv=0.220000000 kw = 0.394693 pf=0.92 status=variable vmaxpu=1.5 vminpu=0.92 daily="RES1_26_DO" 

New "Load.BT_1041215_1_M1" bus1="1001041215.1.2.3.4" phases=3 conn=Delta model=2 kv=0.220000000 kw = 0.0081415 pf=0.92 status=variable vmaxpu=1.5 vminpu=0.92 daily="COM1_8_DO"  
New "Load.BT_1041215_1_M2" bus1="1001041215.1.2.3.4" phases=3 conn=Delta model=3 kv=0.220000000 kw = 0.0081415 pf=0.92 status=variable vmaxpu=1.5 vminpu=0.92 daily="COM1_8_DO" 

New "Load.BT_1018927_M1" bus1="1001018927.1.2.4" phases=1 conn=Delta model=2 kv=0.220000000 kw = 0.319817 pf=0.92 status=variable vmaxpu=1.5 vminpu=0.92 daily="RES1_4_DO"  
New "Load.BT_1018927_M2" bus1="1001018927.1.2.4" phases=1 conn=Delta model=3 kv=0.220000000 kw = 0.319817 pf=0.92 status=variable vmaxpu=1.5 vminpu=0.92 daily="RES1_4_DO" 
New "Load.BT_1044939_M1" bus1="1001044939.1.2.3.4" phases=3 conn=Delta model=2 kv=0.220000000 kw = 0.20058 pf=0.92 status=variable vmaxpu=1.5 vminpu=0.92 daily="RES1_19_DO"  
New "Load.BT_1044939_M2" bus1="1001044939.1.2.3.4" phases=3 conn=Delta model=3 kv=0.220000000 kw = 0.20058 pf=0.92 status=variable vmaxpu=1.5 vminpu=0.92 daily="RES1_19_DO" 
New "Load.BT_1019802_1_M1" bus1="1001019802.1.2.3.4" phases=3 conn=Delta model=2 kv=0.220000000 kw = 0.0871455 pf=0.92 status=variable vmaxpu=1.5 vminpu=0.92 daily="COM1_5_DO"  
New "Load.BT_1019802_1_M2" bus1="1001019802.1.2.3.4" phases=3 conn=Delta model=3 kv=0.220000000 kw = 0.0871455 pf=0.92 status=variable vmaxpu=1.5 vminpu=0.92 daily="COM1_5_DO" 

New "Load.BT_1020733_1_M1" bus1="1001020733.1.2.3.4" phases=3 conn=Delta model=2 kv=0.220000000 kw = 0.2177405 pf=0.92 status=variable vmaxpu=1.5 vminpu=0.92 daily="RES1_10_DO"  
New "Load.BT_1020733_1_M2" bus1="1001020733.1.2.3.4" phases=3 conn=Delta model=3 kv=0.220000000 kw = 0.2177405 pf=0.92 status=variable vmaxpu=1.5 vminpu=0.92 daily="RES1_10_DO" 
New "Load.BT_996534_1_M1" bus1="1000996534.1.2.4" phases=1 conn=Delta model=2 kv=0.220000000 kw = 0.021123 pf=0.92 status=variable vmaxpu=1.5 vminpu=0.92 daily="RES1_18_DO"  
New "Load.BT_996534_1_M2" bus1="1000996534.1.2.4" phases=1 conn=Delta model=3 kv=0.220000000 kw = 0.021123 pf=0.92 status=variable vmaxpu=1.5 vminpu=0.92 daily="RES1_18_DO" 
New "Load.BT_994770_M1" bus1="1000994770.3.4" phases=1 conn=Wye model=2 kv=0.220000000 kw = 0.2174305 pf=0.92 status=variable vmaxpu=1.5 vminpu=0.92 daily="RES1_1_DO"  
New "Load.BT_994770_M2" bus1="1000994770.3.4" phases=1 conn=Wye model=3 kv=0.220000000 kw = 0.2174305 pf=0.92 status=variable vmaxpu=1.5 vminpu=0.92 daily="RES1_1_DO" 

New "Load.BT_1036700_1_M1" bus1="1001036700.1.2.3.4" phases=3 conn=Delta model=2 kv=0.220000000 kw = 0.2779715 pf=0.92 status=variable vmaxpu=1.5 vminpu=0.92 daily="RES1_11_DO"  
New "Load.BT_1036700_1_M2" bus1="1001036700.1.2.3.4" phases=3 conn=Delta model=3 kv=0.220000000 kw = 0.2779715 pf=0.92 status=variable vmaxpu=1.5 vminpu=0.92 daily="RES1_11_DO" 
New "Load.BT_4403154_1_M1" bus1="1004403154.1.2.3.4" phases=3 conn=Delta model=2 kv=0.220000000 kw = 0.1115025 pf=0.92 status=variable vmaxpu=1.5 vminpu=0.92 daily="RES1_2_DO"  
New "Load.BT_4403154_1_M2" bus1="1004403154.1.2.3.4" phases=3 conn=Delta model=3 kv=0.220000000 kw = 0.1115025 pf=0.92 status=variable vmaxpu=1.5 vminpu=0.92 daily="RES1_2_DO" 
New "Load.BT_1037869_M1" bus1="1001037869.1.2.3.4" phases=3 conn=Delta model=2 kv=0.220000000 kw = 0.321795 pf=0.92 status=variable vmaxpu=1.5 vminpu=0.92 daily="RES1_9_DO"  
New "Load.BT_1037869_M2" bus1="1001037869.1.2.3.4" phases=3 conn=Delta model=3 kv=0.220000000 kw = 0.321795 pf=0.92 status=variable vmaxpu=1.5 vminpu=0.92 daily="RES1_9_DO" 
New "Load.BT_1007510_M1" bus1="1001007510.1.4" phases=1 conn=Wye model=2 kv=0.220000000 kw = 0.2285675 pf=0.92 status=variable vmaxpu=1.5 vminpu=0.92 daily="RES1_1_DO"  
New "Load.BT_1007510_M2" bus1="1001007510.1.4" phases=1 conn=Wye model=3 kv=0.220000000 kw = 0.2285675 pf=0.92 status=variable vmaxpu=1.5 vminpu=0.92 daily="RES1_1_DO" 
New "Load.BT_10091795_M1" bus1="1010091795.1.2.4" phases=1 conn=Delta model=2 kv=0.240000000 kw = 0.3893655 pf=0.92 status=variable vmaxpu=1.5 vminpu=0.92 daily="RES1_4_DO"  
New "Load.BT_10091795_M2" bus1="1010091795.1.2.4" phases=1 conn=Delta model=3 kv=0.240000000 kw = 0.3893655 pf=0.92 status=variable vmaxpu=1.5 vminpu=0.92 daily="RES1_4_DO" 
New "Load.BT_1012018_M1" bus1="1001012018.2.4" phases=1 conn=Wye model=2 kv=0.220000000 kw = 0.1678185 pf=0.92 status=variable vmaxpu=1.5 vminpu=0.92 daily="RES1_1_DO"  
New "Load.BT_1012018_M2" bus1="1001012018.2.4" phases=1 conn=Wye model=3 kv=0.220000000 kw = 0.1678185 pf=0.92 status=variable vmaxpu=1.5 vminpu=0.92 daily="RES1_1_DO" 

New "Load.BT_1023057_1_M1" bus1="1001023057.1.2.3.4" phases=3 conn=Delta model=2 kv=0.220000000 kw = 0.0128785 pf=0.92 status=variable vmaxpu=1.5 vminpu=0.92 daily="RES1_11_DO"  
New "Load.BT_1023057_1_M2" bus1="1001023057.1.2.3.4" phases=3 conn=Delta model=3 kv=0.220000000 kw = 0.0128785 pf=0.92 status=variable vmaxpu=1.5 vminpu=0.92 daily="RES1_11_DO" 
New "Load.BT_10237022_1_M1" bus1="1010237022.1.2.3.4" phases=3 conn=Delta model=2 kv=0.220000000 kw = 0.2315845 pf=0.92 status=variable vmaxpu=1.5 vminpu=0.92 daily="RES1_17_DO"  
New "Load.BT_10237022_1_M2" bus1="1010237022.1.2.3.4" phases=3 conn=Delta model=3 kv=0.220000000 kw = 0.2315845 pf=0.92 status=variable vmaxpu=1.5 vminpu=0.92 daily="RES1_17_DO" 
New "Load.BT_11171629_M1" bus1="1011171629.3.1.4" phases=1 conn=Delta model=2 kv=0.220000000 kw = 0.0 pf=0.92 status=variable vmaxpu=1.5 vminpu=0.92 daily="RES1_6_DO"  
New "Load.BT_11171629_M2" bus1="1011171629.3.1.4" phases=1 conn=Delta model=3 kv=0.220000000 kw = 0.0 pf=0.92 status=variable vmaxpu=1.5 vminpu=0.92 daily="RES1_6_DO" 
New "Load.BT_1011332_1_M1" bus1="1001011332.3.4" phases=1 conn=Wye model=2 kv=0.220000000 kw = 0.2391735 pf=0.92 status=variable vmaxpu=1.5 vminpu=0.92 daily="COM1_3_DO"  
New "Load.BT_1011332_1_M2" bus1="1001011332.3.4" phases=1 conn=Wye model=3 kv=0.220000000 kw = 0.2391735 pf=0.92 status=variable vmaxpu=1.5 vminpu=0.92 daily="COM1_3_DO" 
New "Load.BT_1020299_1_M1" bus1="1001020299.2.4" phases=1 conn=Wye model=2 kv=0.120000000 kw = 0.064188 pf=0.92 status=variable vmaxpu=1.5 vminpu=0.92 daily="RES1_4_DO"  
New "Load.BT_1020299_1_M2" bus1="1001020299.2.4" phases=1 conn=Wye model=3 kv=0.120000000 kw = 0.064188 pf=0.92 status=variable vmaxpu=1.5 vminpu=0.92 daily="RES1_4_DO" 
New "Load.BT_1238209_1_M1" bus1="1001238209.3.1.4" phases=1 conn=Delta model=2 kv=0.220000000 kw = 0.3608595 pf=0.92 status=variable vmaxpu=1.5 vminpu=0.92 daily="RES1_23_DO"  
New "Load.BT_1238209_1_M2" bus1="1001238209.3.1.4" phases=1 conn=Delta model=3 kv=0.220000000 kw = 0.3608595 pf=0.92 status=variable vmaxpu=1.5 vminpu=0.92 daily="RES1_23_DO" 
New "Load.BT_11133959_M1" bus1="1011133959.1.2.3.4" phases=3 conn=Delta model=2 kv=0.220000000 kw = 0.3310445 pf=0.92 status=variable vmaxpu=1.5 vminpu=0.92 daily="RES1_17_DO"  
New "Load.BT_11133959_M2" bus1="1011133959.1.2.3.4" phases=3 conn=Delta model=3 kv=0.220000000 kw = 0.3310445 pf=0.92 status=variable vmaxpu=1.5 vminpu=0.92 daily="RES1_17_DO" 
New "Load.BT_1017744_1_M1" bus1="1001017744.3.1.4" phases=1 conn=Delta model=2 kv=0.220000000 kw = 0.032538 pf=0.92 status=variable vmaxpu=1.5 vminpu=0.92 daily="COM1_11_DO"  
New "Load.BT_1017744_1_M2" bus1="1001017744.3.1.4" phases=1 conn=Delta model=3 kv=0.220000000 kw = 0.032538 pf=0.92 status=variable vmaxpu=1.5 vminpu=0.92 daily="COM1_11_DO" 
New "Load.BT_1030169_M1" bus1="1001030169.3.1.4" phases=1 conn=Delta model=2 kv=0.220000000 kw = 0.83239 pf=0.92 status=variable vmaxpu=1.5 vminpu=0.92 daily="RES1_2_DO"  
New "Load.BT_1030169_M2" bus1="1001030169.3.1.4" phases=1 conn=Delta model=3 kv=0.220000000 kw = 0.83239 pf=0.92 status=variable vmaxpu=1.5 vminpu=0.92 daily="RES1_2_DO" 
New "Load.BT_998347_M1" bus1="1000998347.2.4" phases=1 conn=Wye model=2 kv=0.120000000 kw = 0.2424005 pf=0.92 status=variable vmaxpu=1.5 vminpu=0.92 daily="RES1_2_DO"  
New "Load.BT_998347_M2" bus1="1000998347.2.4" phases=1 conn=Wye model=3 kv=0.120000000 kw = 0.2424005 pf=0.92 status=variable vmaxpu=1.5 vminpu=0.92 daily="RES1_2_DO" 
New "Load.BT_1042573_M1" bus1="1001042573.1.4" phases=1 conn=Wye model=2 kv=0.220000000 kw = 0.4151235 pf=0.92 status=variable vmaxpu=1.5 vminpu=0.92 daily="RES1_19_DO"  
New "Load.BT_1042573_M2" bus1="1001042573.1.4" phases=1 conn=Wye model=3 kv=0.220000000 kw = 0.4151235 pf=0.92 status=variable vmaxpu=1.5 vminpu=0.92 daily="RES1_19_DO" 
New "Load.BT_1013796_1_M1" bus1="1001013796.1.2.3.4" phases=3 conn=Delta model=2 kv=0.220000000 kw = 0.152688 pf=0.92 status=variable vmaxpu=1.5 vminpu=0.92 daily="RES1_2_DO"  
New "Load.BT_1013796_1_M2" bus1="1001013796.1.2.3.4" phases=3 conn=Delta model=3 kv=0.220000000 kw = 0.152688 pf=0.92 status=variable vmaxpu=1.5 vminpu=0.92 daily="RES1_2_DO" 
New "Load.BT_1045807_M1" bus1="1001045807.1.2.3.4" phases=3 conn=Delta model=2 kv=0.220000000 kw = 0.308359 pf=0.92 status=variable vmaxpu=1.5 vminpu=0.92 daily="RES1_19_DO"  
New "Load.BT_1045807_M2" bus1="1001045807.1.2.3.4" phases=3 conn=Delta model=3 kv=0.220000000 kw = 0.308359 pf=0.92 status=variable vmaxpu=1.5 vminpu=0.92 daily="RES1_19_DO" 
New "Load.BT_1012620_1_M1" bus1="1001012620.1.2.4" phases=1 conn=Delta model=2 kv=0.220000000 kw = 0.0559785 pf=0.92 status=variable vmaxpu=1.5 vminpu=0.92 daily="RES1_11_DO"  
New "Load.BT_1012620_1_M2" bus1="1001012620.1.2.4" phases=1 conn=Delta model=3 kv=0.220000000 kw = 0.0559785 pf=0.92 status=variable vmaxpu=1.5 vminpu=0.92 daily="RES1_11_DO" 
New "Load.BT_1009666_1_M1" bus1="1001009666.1.4" phases=1 conn=Wye model=2 kv=0.220000000 kw = 0.0573565 pf=0.92 status=variable vmaxpu=1.5 vminpu=0.92 daily="RES1_11_DO"  
New "Load.BT_1009666_1_M2" bus1="1001009666.1.4" phases=1 conn=Wye model=3 kv=0.220000000 kw = 0.0573565 pf=0.92 status=variable vmaxpu=1.5 vminpu=0.92 daily="RES1_11_DO" 
New "Load.BT_10768779_M1" bus1="1010768779.3.1.4" phases=1 conn=Delta model=2 kv=0.220000000 kw = 0.548831 pf=0.92 status=variable vmaxpu=1.5 vminpu=0.92 daily="RES1_6_DO"  
New "Load.BT_10768779_M2" bus1="1010768779.3.1.4" phases=1 conn=Delta model=3 kv=0.220000000 kw = 0.548831 pf=0.92 status=variable vmaxpu=1.5 vminpu=0.92 daily="RES1_6_DO" 
New "Load.BT_4857615_2_M1" bus1="1004857615.1.2.3.4" phases=3 conn=Delta model=2 kv=0.220000000 kw = 0.35074 pf=0.92 status=variable vmaxpu=1.5 vminpu=0.92 daily="RES1_11_DO"  
New "Load.BT_4857615_2_M2" bus1="1004857615.1.2.3.4" phases=3 conn=Delta model=3 kv=0.220000000 kw = 0.35074 pf=0.92 status=variable vmaxpu=1.5 vminpu=0.92 daily="RES1_11_DO" 
New "Load.BT_1016904_M1" bus1="1001016904.3.4" phases=1 conn=Wye model=2 kv=0.220000000 kw = 0.3575765 pf=0.92 status=variable vmaxpu=1.5 vminpu=0.92 daily="RES1_7_DO"  
New "Load.BT_1016904_M2" bus1="1001016904.3.4" phases=1 conn=Wye model=3 kv=0.220000000 kw = 0.3575765 pf=0.92 status=variable vmaxpu=1.5 vminpu=0.92 daily="RES1_7_DO" 
New "Load.BT_3953810_1_M1" bus1="1003953810.1.2.3.4" phases=3 conn=Delta model=2 kv=0.220000000 kw = 0.1669925 pf=0.92 status=variable vmaxpu=1.5 vminpu=0.92 daily="RES1_6_DO"  
New "Load.BT_3953810_1_M2" bus1="1003953810.1.2.3.4" phases=3 conn=Delta model=3 kv=0.220000000 kw = 0.1669925 pf=0.92 status=variable vmaxpu=1.5 vminpu=0.92 daily="RES1_6_DO" 
New "Load.BT_1041201_M1" bus1="1001041201.1.2.3.4" phases=3 conn=Delta model=2 kv=0.220000000 kw = 0.21306 pf=0.92 status=variable vmaxpu=1.5 vminpu=0.92 daily="RES1_19_DO"  
New "Load.BT_1041201_M2" bus1="1001041201.1.2.3.4" phases=3 conn=Delta model=3 kv=0.220000000 kw = 0.21306 pf=0.92 status=variable vmaxpu=1.5 vminpu=0.92 daily="RES1_19_DO" 
New "Load.BT_11088406_M1" bus1="1011088406.1.2.4" phases=1 conn=Delta model=2 kv=0.220000000 kw = 0.151397 pf=0.92 status=variable vmaxpu=1.5 vminpu=0.92 daily="RES1_2_DO"  
New "Load.BT_11088406_M2" bus1="1011088406.1.2.4" phases=1 conn=Delta model=3 kv=0.220000000 kw = 0.151397 pf=0.92 status=variable vmaxpu=1.5 vminpu=0.92 daily="RES1_2_DO" 
New "Load.BT_1023960_M1" bus1="1001023960.1.2.3.4" phases=3 conn=Delta model=2 kv=0.220000000 kw = 1.448203 pf=0.92 status=variable vmaxpu=1.5 vminpu=0.92 daily="COM1_5_DO"  
New "Load.BT_1023960_M2" bus1="1001023960.1.2.3.4" phases=3 conn=Delta model=3 kv=0.220000000 kw = 1.448203 pf=0.92 status=variable vmaxpu=1.5 vminpu=0.92 daily="COM1_5_DO" 
New "Load.BT_10293138_M1" bus1="1010293138.1.2.4" phases=1 conn=Delta model=2 kv=0.220000000 kw = 0.0101435 pf=0.92 status=variable vmaxpu=1.5 vminpu=0.92 daily="RES1_8_DO"  
New "Load.BT_10293138_M2" bus1="1010293138.1.2.4" phases=1 conn=Delta model=3 kv=0.220000000 kw = 0.0101435 pf=0.92 status=variable vmaxpu=1.5 vminpu=0.92 daily="RES1_8_DO" 
New "Load.BT_1007531_1_M1" bus1="1001007531.1.4" phases=1 conn=Wye model=2 kv=0.220000000 kw = 0.0936535 pf=0.92 status=variable vmaxpu=1.5 vminpu=0.92 daily="RES1_11_DO"  
New "Load.BT_1007531_1_M2" bus1="1001007531.1.4" phases=1 conn=Wye model=3 kv=0.220000000 kw = 0.0936535 pf=0.92 status=variable vmaxpu=1.5 vminpu=0.92 daily="RES1_11_DO" 
New "Load.BT_1015063_M1" bus1="1001015063.3.4" phases=1 conn=Wye model=2 kv=0.220000000 kw = 0.2100395 pf=0.92 status=variable vmaxpu=1.5 vminpu=0.92 daily="RES1_26_DO"  
New "Load.BT_1015063_M2" bus1="1001015063.3.4" phases=1 conn=Wye model=3 kv=0.220000000 kw = 0.2100395 pf=0.92 status=variable vmaxpu=1.5 vminpu=0.92 daily="RES1_26_DO" 

New "Load.BT_1017604_1_M1" bus1="1001017604.1.2.3.4" phases=3 conn=Delta model=2 kv=0.220000000 kw = 0.001565 pf=0.92 status=variable vmaxpu=1.5 vminpu=0.92 daily="COM1_11_DO"  
New "Load.BT_1017604_1_M2" bus1="1001017604.1.2.3.4" phases=3 conn=Delta model=3 kv=0.220000000 kw = 0.001565 pf=0.92 status=variable vmaxpu=1.5 vminpu=0.92 daily="COM1_11_DO" 
New "Load.BT_1007657_1_M1" bus1="1001007657.3.1.4" phases=1 conn=Delta model=2 kv=0.220000000 kw = 0.1815615 pf=0.92 status=variable vmaxpu=1.5 vminpu=0.92 daily="RES1_11_DO"  
New "Load.BT_1007657_1_M2" bus1="1001007657.3.1.4" phases=1 conn=Delta model=3 kv=0.220000000 kw = 0.1815615 pf=0.92 status=variable vmaxpu=1.5 vminpu=0.92 daily="RES1_11_DO" 
New "Load.BT_1033809_1_M1" bus1="1001033809.1.2.3.4" phases=3 conn=Delta model=2 kv=0.220000000 kw = 0.3891785 pf=0.92 status=variable vmaxpu=1.5 vminpu=0.92 daily="RES1_2_DO"  
New "Load.BT_1033809_1_M2" bus1="1001033809.1.2.3.4" phases=3 conn=Delta model=3 kv=0.220000000 kw = 0.3891785 pf=0.92 status=variable vmaxpu=1.5 vminpu=0.92 daily="RES1_2_DO" 
New "Load.BT_10382334_1_M1" bus1="1010382334.1.2.3.4" phases=3 conn=Delta model=2 kv=0.220000000 kw = 0.2490245 pf=0.92 status=variable vmaxpu=1.5 vminpu=0.92 daily="RES1_21_DO"  
New "Load.BT_10382334_1_M2" bus1="1010382334.1.2.3.4" phases=3 conn=Delta model=3 kv=0.220000000 kw = 0.2490245 pf=0.92 status=variable vmaxpu=1.5 vminpu=0.92 daily="RES1_21_DO" 
New "Load.BT_1013796_2_M1" bus1="1001013796.1.2.3.4" phases=3 conn=Delta model=2 kv=0.220000000 kw = 0.078576 pf=0.92 status=variable vmaxpu=1.5 vminpu=0.92 daily="RES1_2_DO"  
New "Load.BT_1013796_2_M2" bus1="1001013796.1.2.3.4" phases=3 conn=Delta model=3 kv=0.220000000 kw = 0.078576 pf=0.92 status=variable vmaxpu=1.5 vminpu=0.92 daily="RES1_2_DO" 
New "Load.BT_1011024_1_M1" bus1="1001011024.1.2.3.4" phases=3 conn=Delta model=2 kv=0.220000000 kw = 0.235158 pf=0.92 status=variable vmaxpu=1.5 vminpu=0.92 daily="RES1_9_DO"  
New "Load.BT_1011024_1_M2" bus1="1001011024.1.2.3.4" phases=3 conn=Delta model=3 kv=0.220000000 kw = 0.235158 pf=0.92 status=variable vmaxpu=1.5 vminpu=0.92 daily="RES1_9_DO" 

New "Load.BT_1018759_M1" bus1="1001018759.1.2.4" phases=1 conn=Delta model=2 kv=0.220000000 kw = 0.2247635 pf=0.92 status=variable vmaxpu=1.5 vminpu=0.92 daily="COM1_17_DO"  
New "Load.BT_1018759_M2" bus1="1001018759.1.2.4" phases=1 conn=Delta model=3 kv=0.220000000 kw = 0.2247635 pf=0.92 status=variable vmaxpu=1.5 vminpu=0.92 daily="COM1_17_DO" 
New "Load.BT_10279082_M1" bus1="1010279082.1.2.3.4" phases=3 conn=Delta model=2 kv=0.220000000 kw = 0.5898245 pf=0.92 status=variable vmaxpu=1.5 vminpu=0.92 daily="RES1_1_DO"  
New "Load.BT_10279082_M2" bus1="1010279082.1.2.3.4" phases=3 conn=Delta model=3 kv=0.220000000 kw = 0.5898245 pf=0.92 status=variable vmaxpu=1.5 vminpu=0.92 daily="RES1_1_DO" 
New "Load.BT_1219407_1_M1" bus1="1001219407.1.2.3.4" phases=3 conn=Delta model=2 kv=0.220000000 kw = 0.1413145 pf=0.92 status=variable vmaxpu=1.5 vminpu=0.92 daily="COM1_14_DO"  
New "Load.BT_1219407_1_M2" bus1="1001219407.1.2.3.4" phases=3 conn=Delta model=3 kv=0.220000000 kw = 0.1413145 pf=0.92 status=variable vmaxpu=1.5 vminpu=0.92 daily="COM1_14_DO" 
New "Load.BT_1034719_M1" bus1="1001034719.1.2.3.4" phases=3 conn=Delta model=2 kv=0.220000000 kw = 0.143586 pf=0.92 status=variable vmaxpu=1.5 vminpu=0.92 daily="RES1_5_DO"  
New "Load.BT_1034719_M2" bus1="1001034719.1.2.3.4" phases=3 conn=Delta model=3 kv=0.220000000 kw = 0.143586 pf=0.92 status=variable vmaxpu=1.5 vminpu=0.92 daily="RES1_5_DO" 
New "Load.BT_1042216_1_M1" bus1="1001042216.1.2.3.4" phases=3 conn=Delta model=2 kv=0.220000000 kw = 0.38483 pf=0.92 status=variable vmaxpu=1.5 vminpu=0.92 daily="RES1_19_DO"  
New "Load.BT_1042216_1_M2" bus1="1001042216.1.2.3.4" phases=3 conn=Delta model=3 kv=0.220000000 kw = 0.38483 pf=0.92 status=variable vmaxpu=1.5 vminpu=0.92 daily="RES1_19_DO" 
New "Load.BT_1007412_1_M1" bus1="1001007412.3.1.4" phases=1 conn=Delta model=2 kv=0.220000000 kw = 0.0 pf=0.92 status=variable vmaxpu=1.5 vminpu=0.92 daily="RES1_1_DO"  
New "Load.BT_1007412_1_M2" bus1="1001007412.3.1.4" phases=1 conn=Delta model=3 kv=0.220000000 kw = 0.0 pf=0.92 status=variable vmaxpu=1.5 vminpu=0.92 daily="RES1_1_DO" 
New "Load.BT_10367201_1_M1" bus1="1010367201.1.2.4" phases=1 conn=Delta model=2 kv=0.220000000 kw = 0.2632525 pf=0.92 status=variable vmaxpu=1.5 vminpu=0.92 daily="RES1_4_DO"  
New "Load.BT_10367201_1_M2" bus1="1010367201.1.2.4" phases=1 conn=Delta model=3 kv=0.220000000 kw = 0.2632525 pf=0.92 status=variable vmaxpu=1.5 vminpu=0.92 daily="RES1_4_DO" 
New "Load.BT_1025017_1_M1" bus1="1001025017.1.2.3.4" phases=3 conn=Delta model=2 kv=0.220000000 kw = 0.197 pf=0.92 status=variable vmaxpu=1.5 vminpu=0.92 daily="RES1_2_DO"  
New "Load.BT_1025017_1_M2" bus1="1001025017.1.2.3.4" phases=3 conn=Delta model=3 kv=0.220000000 kw = 0.197 pf=0.92 status=variable vmaxpu=1.5 vminpu=0.92 daily="RES1_2_DO" 
New "Load.BT_1017597_1_M1" bus1="1001017597.3.4" phases=1 conn=Wye model=2 kv=0.220000000 kw = 0.0 pf=0.92 status=variable vmaxpu=1.5 vminpu=0.92 daily="COM1_7_DO"  
New "Load.BT_1017597_1_M2" bus1="1001017597.3.4" phases=1 conn=Wye model=3 kv=0.220000000 kw = 0.0 pf=0.92 status=variable vmaxpu=1.5 vminpu=0.92 daily="COM1_7_DO" 

New "Load.BT_994315_1_M1" bus1="1000994315.2.4" phases=1 conn=Wye model=2 kv=0.220000000 kw = 0.203316 pf=0.92 status=variable vmaxpu=1.5 vminpu=0.92 daily="RES1_14_DO"  
New "Load.BT_994315_1_M2" bus1="1000994315.2.4" phases=1 conn=Wye model=3 kv=0.220000000 kw = 0.203316 pf=0.92 status=variable vmaxpu=1.5 vminpu=0.92 daily="RES1_14_DO" 
New "Load.BT_11308469_M1" bus1="1011308469.1.2.3.4" phases=3 conn=Delta model=2 kv=0.220000000 kw = 0.21742 pf=0.92 status=variable vmaxpu=1.5 vminpu=0.92 daily="RES1_7_DO"  
New "Load.BT_11308469_M2" bus1="1011308469.1.2.3.4" phases=3 conn=Delta model=3 kv=0.220000000 kw = 0.21742 pf=0.92 status=variable vmaxpu=1.5 vminpu=0.92 daily="RES1_7_DO" 
New "Load.BT_1021643_M1" bus1="1001021643.2.3.4" phases=1 conn=Delta model=2 kv=0.220000000 kw = 0.021837 pf=0.92 status=variable vmaxpu=1.5 vminpu=0.92 daily="COM1_11_DO"  
New "Load.BT_1021643_M2" bus1="1001021643.2.3.4" phases=1 conn=Delta model=3 kv=0.220000000 kw = 0.021837 pf=0.92 status=variable vmaxpu=1.5 vminpu=0.92 daily="COM1_11_DO" 
New "Load.BT_4776198_M1" bus1="1004776198.1.4" phases=1 conn=Wye model=2 kv=0.220000000 kw = 0.1150765 pf=0.92 status=variable vmaxpu=1.5 vminpu=0.92 daily="RES1_23_DO"  
New "Load.BT_4776198_M2" bus1="1004776198.1.4" phases=1 conn=Wye model=3 kv=0.220000000 kw = 0.1150765 pf=0.92 status=variable vmaxpu=1.5 vminpu=0.92 daily="RES1_23_DO" 
New "Load.BT_1021118_M1" bus1="1001021118.1.2.3.4" phases=3 conn=Delta model=2 kv=0.220000000 kw = 0.3083655 pf=0.92 status=variable vmaxpu=1.5 vminpu=0.92 daily="COM1_6_DO"  
New "Load.BT_1021118_M2" bus1="1001021118.1.2.3.4" phases=3 conn=Delta model=3 kv=0.220000000 kw = 0.3083655 pf=0.92 status=variable vmaxpu=1.5 vminpu=0.92 daily="COM1_6_DO" 
New "Load.BT_1012627_M1" bus1="1001012627.1.4" phases=1 conn=Wye model=2 kv=0.220000000 kw = 0.6016505 pf=0.92 status=variable vmaxpu=1.5 vminpu=0.92 daily="RES1_26_DO"  
New "Load.BT_1012627_M2" bus1="1001012627.1.4" phases=1 conn=Wye model=3 kv=0.220000000 kw = 0.6016505 pf=0.92 status=variable vmaxpu=1.5 vminpu=0.92 daily="RES1_26_DO" 
New "Load.BT_1043392_M1" bus1="1001043392.1.2.3.4" phases=3 conn=Delta model=2 kv=0.220000000 kw = 0.384601 pf=0.92 status=variable vmaxpu=1.5 vminpu=0.92 daily="RES1_19_DO"  
New "Load.BT_1043392_M2" bus1="1001043392.1.2.3.4" phases=3 conn=Delta model=3 kv=0.220000000 kw = 0.384601 pf=0.92 status=variable vmaxpu=1.5 vminpu=0.92 daily="RES1_19_DO" 
New "Load.BT_4087006_M1" bus1="1004087006.1.2.4" phases=1 conn=Delta model=2 kv=0.220000000 kw = 0.239383 pf=0.92 status=variable vmaxpu=1.5 vminpu=0.92 daily="RES1_2_DO"  
New "Load.BT_4087006_M2" bus1="1004087006.1.2.4" phases=1 conn=Delta model=3 kv=0.220000000 kw = 0.239383 pf=0.92 status=variable vmaxpu=1.5 vminpu=0.92 daily="RES1_2_DO" 
New "Load.BT_4807852_M1" bus1="1004807852.1.2.4" phases=1 conn=Delta model=2 kv=0.220000000 kw = 0.339086 pf=0.92 status=variable vmaxpu=1.5 vminpu=0.92 daily="RES1_12_DO"  
New "Load.BT_4807852_M2" bus1="1004807852.1.2.4" phases=1 conn=Delta model=3 kv=0.220000000 kw = 0.339086 pf=0.92 status=variable vmaxpu=1.5 vminpu=0.92 daily="RES1_12_DO" 
New "Load.BT_1030022_M1" bus1="1001030022.2.4" phases=1 conn=Wye model=2 kv=0.220000000 kw = 0.3044275 pf=0.92 status=variable vmaxpu=1.5 vminpu=0.92 daily="RES1_2_DO"  
New "Load.BT_1030022_M2" bus1="1001030022.2.4" phases=1 conn=Wye model=3 kv=0.220000000 kw = 0.3044275 pf=0.92 status=variable vmaxpu=1.5 vminpu=0.92 daily="RES1_2_DO" 

New "Load.BT_4464467_M1" bus1="1004464467.1.2.4" phases=1 conn=Delta model=2 kv=0.220000000 kw = 0.3244605 pf=0.92 status=variable vmaxpu=1.5 vminpu=0.92 daily="RES1_2_DO"  
New "Load.BT_4464467_M2" bus1="1004464467.1.2.4" phases=1 conn=Delta model=3 kv=0.220000000 kw = 0.3244605 pf=0.92 status=variable vmaxpu=1.5 vminpu=0.92 daily="RES1_2_DO" 
New "Load.BT_1005256_M1" bus1="1001005256.3.4" phases=1 conn=Wye model=2 kv=0.220000000 kw = 0.1794 pf=0.92 status=variable vmaxpu=1.5 vminpu=0.92 daily="RES1_23_DO"  
New "Load.BT_1005256_M2" bus1="1001005256.3.4" phases=1 conn=Wye model=3 kv=0.220000000 kw = 0.1794 pf=0.92 status=variable vmaxpu=1.5 vminpu=0.92 daily="RES1_23_DO" 
New "Load.BT_4857615_3_M1" bus1="1004857615.1.2.3.4" phases=3 conn=Delta model=2 kv=0.220000000 kw = 0.478832 pf=0.92 status=variable vmaxpu=1.5 vminpu=0.92 daily="RES1_16_DO"  
New "Load.BT_4857615_3_M2" bus1="1004857615.1.2.3.4" phases=3 conn=Delta model=3 kv=0.220000000 kw = 0.478832 pf=0.92 status=variable vmaxpu=1.5 vminpu=0.92 daily="RES1_16_DO" 
New "Load.BT_1033718_1_M1" bus1="1001033718.1.2.3.4" phases=3 conn=Delta model=2 kv=0.220000000 kw = 0.288734 pf=0.92 status=variable vmaxpu=1.5 vminpu=0.92 daily="RES1_2_DO"  
New "Load.BT_1033718_1_M2" bus1="1001033718.1.2.3.4" phases=3 conn=Delta model=3 kv=0.220000000 kw = 0.288734 pf=0.92 status=variable vmaxpu=1.5 vminpu=0.92 daily="RES1_2_DO" 
New "Load.BT_1025507_1_M1" bus1="1001025507.1.2.4" phases=1 conn=Delta model=2 kv=0.220000000 kw = 0.253791 pf=0.92 status=variable vmaxpu=1.5 vminpu=0.92 daily="RES1_4_DO"  
New "Load.BT_1025507_1_M2" bus1="1001025507.1.2.4" phases=1 conn=Delta model=3 kv=0.220000000 kw = 0.253791 pf=0.92 status=variable vmaxpu=1.5 vminpu=0.92 daily="RES1_4_DO" 
New "Load.BT_10139470_1_M1" bus1="1010139470.1.2.3.4" phases=3 conn=Delta model=2 kv=0.220000000 kw = 0.0335305 pf=0.92 status=variable vmaxpu=1.5 vminpu=0.92 daily="RES1_17_DO"  
New "Load.BT_10139470_1_M2" bus1="1010139470.1.2.3.4" phases=3 conn=Delta model=3 kv=0.220000000 kw = 0.0335305 pf=0.92 status=variable vmaxpu=1.5 vminpu=0.92 daily="RES1_17_DO" 
New "Load.BT_1024485_1_M1" bus1="1001024485.1.2.4" phases=1 conn=Delta model=2 kv=0.240000000 kw = 0.1413615 pf=0.92 status=variable vmaxpu=1.5 vminpu=0.92 daily="RES1_12_DO"  
New "Load.BT_1024485_1_M2" bus1="1001024485.1.2.4" phases=1 conn=Delta model=3 kv=0.240000000 kw = 0.1413615 pf=0.92 status=variable vmaxpu=1.5 vminpu=0.92 daily="RES1_12_DO" 
New "Load.BT_1041327_1_M1" bus1="1001041327.1.2.3.4" phases=3 conn=Delta model=2 kv=0.220000000 kw = 0.147487 pf=0.92 status=variable vmaxpu=1.5 vminpu=0.92 daily="RES1_19_DO"  
New "Load.BT_1041327_1_M2" bus1="1001041327.1.2.3.4" phases=3 conn=Delta model=3 kv=0.220000000 kw = 0.147487 pf=0.92 status=variable vmaxpu=1.5 vminpu=0.92 daily="RES1_19_DO" 
New "Load.BT_1017002_1_M1" bus1="1001017002.1.2.3.4" phases=3 conn=Delta model=2 kv=0.220000000 kw = 0.0795695 pf=0.92 status=variable vmaxpu=1.5 vminpu=0.92 daily="COM1_19_DO"  
New "Load.BT_1017002_1_M2" bus1="1001017002.1.2.3.4" phases=3 conn=Delta model=3 kv=0.220000000 kw = 0.0795695 pf=0.92 status=variable vmaxpu=1.5 vminpu=0.92 daily="COM1_19_DO" 
New "Load.BT_1007776_1_M1" bus1="1001007776.1.2.4" phases=1 conn=Delta model=2 kv=0.220000000 kw = 0.0413045 pf=0.92 status=variable vmaxpu=1.5 vminpu=0.92 daily="RES1_11_DO"  
New "Load.BT_1007776_1_M2" bus1="1001007776.1.2.4" phases=1 conn=Delta model=3 kv=0.220000000 kw = 0.0413045 pf=0.92 status=variable vmaxpu=1.5 vminpu=0.92 daily="RES1_11_DO" 
New "Load.BT_1204126_1_M1" bus1="1001204126.1.2.3.4" phases=3 conn=Delta model=2 kv=0.220000000 kw = 0.027271 pf=0.92 status=variable vmaxpu=1.5 vminpu=0.92 daily="COM1_14_DO"  
New "Load.BT_1204126_1_M2" bus1="1001204126.1.2.3.4" phases=3 conn=Delta model=3 kv=0.220000000 kw = 0.027271 pf=0.92 status=variable vmaxpu=1.5 vminpu=0.92 daily="COM1_14_DO" 
New "Load.BT_1036735_1_M1" bus1="1001036735.1.4" phases=1 conn=Wye model=2 kv=0.220000000 kw = 0.2886645 pf=0.92 status=variable vmaxpu=1.5 vminpu=0.92 daily="RES1_5_DO"  
New "Load.BT_1036735_1_M2" bus1="1001036735.1.4" phases=1 conn=Wye model=3 kv=0.220000000 kw = 0.2886645 pf=0.92 status=variable vmaxpu=1.5 vminpu=0.92 daily="RES1_5_DO" 
New "Load.BT_1020005_1_M1" bus1="1001020005.3.4" phases=1 conn=Wye model=2 kv=0.220000000 kw = 0.2796635 pf=0.92 status=variable vmaxpu=1.5 vminpu=0.92 daily="RES1_12_DO"  
New "Load.BT_1020005_1_M2" bus1="1001020005.3.4" phases=1 conn=Wye model=3 kv=0.220000000 kw = 0.2796635 pf=0.92 status=variable vmaxpu=1.5 vminpu=0.92 daily="RES1_12_DO" 
New "Load.BT_995778_1_M1" bus1="1000995778.3.4" phases=1 conn=Wye model=2 kv=0.220000000 kw = 0.1653415 pf=0.92 status=variable vmaxpu=1.5 vminpu=0.92 daily="RES1_1_DO"  
New "Load.BT_995778_1_M2" bus1="1000995778.3.4" phases=1 conn=Wye model=3 kv=0.220000000 kw = 0.1653415 pf=0.92 status=variable vmaxpu=1.5 vminpu=0.92 daily="RES1_1_DO" 
New "Load.BT_1045891_M1" bus1="1001045891.1.2.4" phases=1 conn=Delta model=2 kv=0.220000000 kw = 0.184926 pf=0.92 status=variable vmaxpu=1.5 vminpu=0.92 daily="RES1_19_DO"  
New "Load.BT_1045891_M2" bus1="1001045891.1.2.4" phases=1 conn=Delta model=3 kv=0.220000000 kw = 0.184926 pf=0.92 status=variable vmaxpu=1.5 vminpu=0.92 daily="RES1_19_DO" 
New "Load.BT_1007776_2_M1" bus1="1001007776.1.2.4" phases=1 conn=Delta model=2 kv=0.220000000 kw = 0.019313 pf=0.92 status=variable vmaxpu=1.5 vminpu=0.92 daily="RES1_11_DO"  
New "Load.BT_1007776_2_M2" bus1="1001007776.1.2.4" phases=1 conn=Delta model=3 kv=0.220000000 kw = 0.019313 pf=0.92 status=variable vmaxpu=1.5 vminpu=0.92 daily="RES1_11_DO" 
New "Load.BT_3667923_M1" bus1="1003667923.3.1.4" phases=1 conn=Delta model=2 kv=0.220000000 kw = 0.071491 pf=0.92 status=variable vmaxpu=1.5 vminpu=0.92 daily="RES1_14_DO"  
New "Load.BT_3667923_M2" bus1="1003667923.3.1.4" phases=1 conn=Delta model=3 kv=0.220000000 kw = 0.071491 pf=0.92 status=variable vmaxpu=1.5 vminpu=0.92 daily="RES1_14_DO" 
New "Load.BT_1011969_M1" bus1="1001011969.2.4" phases=1 conn=Wye model=2 kv=0.220000000 kw = 0.2529755 pf=0.92 status=variable vmaxpu=1.5 vminpu=0.92 daily="RES1_1_DO"  
New "Load.BT_1011969_M2" bus1="1001011969.2.4" phases=1 conn=Wye model=3 kv=0.220000000 kw = 0.2529755 pf=0.92 status=variable vmaxpu=1.5 vminpu=0.92 daily="RES1_1_DO" 
New "Load.BT_1018290_M1" bus1="1001018290.2.4" phases=1 conn=Wye model=2 kv=0.220000000 kw = 0.119353 pf=0.92 status=variable vmaxpu=1.5 vminpu=0.92 daily="RES1_7_DO"  
New "Load.BT_1018290_M2" bus1="1001018290.2.4" phases=1 conn=Wye model=3 kv=0.220000000 kw = 0.119353 pf=0.92 status=variable vmaxpu=1.5 vminpu=0.92 daily="RES1_7_DO" 
New "Load.BT_11016062_M1" bus1="1011016062.1.2.4" phases=1 conn=Delta model=2 kv=0.220000000 kw = 0.2376255 pf=0.92 status=variable vmaxpu=1.5 vminpu=0.92 daily="RES1_2_DO"  
New "Load.BT_11016062_M2" bus1="1011016062.1.2.4" phases=1 conn=Delta model=3 kv=0.220000000 kw = 0.2376255 pf=0.92 status=variable vmaxpu=1.5 vminpu=0.92 daily="RES1_2_DO" 
New "Load.BT_1027880_M1" bus1="1001027880.3.4" phases=1 conn=Wye model=2 kv=0.220000000 kw = 0.232602 pf=0.92 status=variable vmaxpu=1.5 vminpu=0.92 daily="RES1_2_DO"  
New "Load.BT_1027880_M2" bus1="1001027880.3.4" phases=1 conn=Wye model=3 kv=0.220000000 kw = 0.232602 pf=0.92 status=variable vmaxpu=1.5 vminpu=0.92 daily="RES1_2_DO" 
New "Load.BT_11409246_1_M1" bus1="1011409246.1.2.3.4" phases=3 conn=Delta model=2 kv=0.220000000 kw = 0.09921 pf=0.92 status=variable vmaxpu=1.5 vminpu=0.92 daily="RES1_14_DO"  
New "Load.BT_11409246_1_M2" bus1="1011409246.1.2.3.4" phases=3 conn=Delta model=3 kv=0.220000000 kw = 0.09921 pf=0.92 status=variable vmaxpu=1.5 vminpu=0.92 daily="RES1_14_DO" 

New "Load.BT_1018458_M1" bus1="1001018458.1.2.3.4" phases=3 conn=Delta model=2 kv=0.220000000 kw = 0.178705 pf=0.92 status=variable vmaxpu=1.5 vminpu=0.92 daily="RES1_7_DO"  
New "Load.BT_1018458_M2" bus1="1001018458.1.2.3.4" phases=3 conn=Delta model=3 kv=0.220000000 kw = 0.178705 pf=0.92 status=variable vmaxpu=1.5 vminpu=0.92 daily="RES1_7_DO" 
New "Load.BT_4270686_M1" bus1="1004270686.3.1.4" phases=1 conn=Delta model=2 kv=0.220000000 kw = 0.0429055 pf=0.92 status=variable vmaxpu=1.5 vminpu=0.92 daily="COM1_13_DO"  
New "Load.BT_4270686_M2" bus1="1004270686.3.1.4" phases=1 conn=Delta model=3 kv=0.220000000 kw = 0.0429055 pf=0.92 status=variable vmaxpu=1.5 vminpu=0.92 daily="COM1_13_DO" 
New "Load.BT_3879505_1_M1" bus1="1003879505.3.4" phases=1 conn=Wye model=2 kv=0.220000000 kw = 0.1248165 pf=0.92 status=variable vmaxpu=1.5 vminpu=0.92 daily="RES1_2_DO"  
New "Load.BT_3879505_1_M2" bus1="1003879505.3.4" phases=1 conn=Wye model=3 kv=0.220000000 kw = 0.1248165 pf=0.92 status=variable vmaxpu=1.5 vminpu=0.92 daily="RES1_2_DO" 
New "Load.BT_6474843_1_M1" bus1="1006474843.1.2.3.4" phases=3 conn=Delta model=2 kv=0.220000000 kw = 0.449777 pf=0.92 status=variable vmaxpu=1.5 vminpu=0.92 daily="RES1_1_DO"  
New "Load.BT_6474843_1_M2" bus1="1006474843.1.2.3.4" phases=3 conn=Delta model=3 kv=0.220000000 kw = 0.449777 pf=0.92 status=variable vmaxpu=1.5 vminpu=0.92 daily="RES1_1_DO" 
New "Load.BT_1020327_1_M1" bus1="1001020327.1.2.4" phases=1 conn=Delta model=2 kv=0.240000000 kw = 0.173607 pf=0.92 status=variable vmaxpu=1.5 vminpu=0.92 daily="RES1_4_DO"  
New "Load.BT_1020327_1_M2" bus1="1001020327.1.2.4" phases=1 conn=Delta model=3 kv=0.240000000 kw = 0.173607 pf=0.92 status=variable vmaxpu=1.5 vminpu=0.92 daily="RES1_4_DO" 
New "Load.BT_1204126_2_M1" bus1="1001204126.1.2.3.4" phases=3 conn=Delta model=2 kv=0.220000000 kw = 0.163214 pf=0.92 status=variable vmaxpu=1.5 vminpu=0.92 daily="COM1_14_DO"  
New "Load.BT_1204126_2_M2" bus1="1001204126.1.2.3.4" phases=3 conn=Delta model=3 kv=0.220000000 kw = 0.163214 pf=0.92 status=variable vmaxpu=1.5 vminpu=0.92 daily="COM1_14_DO" 
New "Load.BT_5024362_M1" bus1="1005024362.1.2.3.4" phases=3 conn=Delta model=2 kv=0.220000000 kw = 0.055901 pf=0.92 status=variable vmaxpu=1.5 vminpu=0.92 daily="COM1_21_DO"  
New "Load.BT_5024362_M2" bus1="1005024362.1.2.3.4" phases=3 conn=Delta model=3 kv=0.220000000 kw = 0.055901 pf=0.92 status=variable vmaxpu=1.5 vminpu=0.92 daily="COM1_21_DO" 
New "Load.BT_10761308_1_M1" bus1="1010761308.1.2.3.4" phases=3 conn=Delta model=2 kv=0.220000000 kw = 0.3583415 pf=0.92 status=variable vmaxpu=1.5 vminpu=0.92 daily="RES1_18_DO"  
New "Load.BT_10761308_1_M2" bus1="1010761308.1.2.3.4" phases=3 conn=Delta model=3 kv=0.220000000 kw = 0.3583415 pf=0.92 status=variable vmaxpu=1.5 vminpu=0.92 daily="RES1_18_DO" 
New "Load.BT_1243732_M1" bus1="1001243732.3.4" phases=1 conn=Wye model=2 kv=0.220000000 kw = 0.1698745 pf=0.92 status=variable vmaxpu=1.5 vminpu=0.92 daily="RES1_25_DO"  
New "Load.BT_1243732_M2" bus1="1001243732.3.4" phases=1 conn=Wye model=3 kv=0.220000000 kw = 0.1698745 pf=0.92 status=variable vmaxpu=1.5 vminpu=0.92 daily="RES1_25_DO" 
New "Load.BT_5052075_1_M1" bus1="1005052075.1.2.4" phases=1 conn=Delta model=2 kv=0.220000000 kw = 0.2632805 pf=0.92 status=variable vmaxpu=1.5 vminpu=0.92 daily="COM1_4_DO"  
New "Load.BT_5052075_1_M2" bus1="1005052075.1.2.4" phases=1 conn=Delta model=3 kv=0.220000000 kw = 0.2632805 pf=0.92 status=variable vmaxpu=1.5 vminpu=0.92 daily="COM1_4_DO" 
New "Load.BT_1011780_M1" bus1="1001011780.1.4" phases=1 conn=Wye model=2 kv=0.220000000 kw = 0.262202 pf=0.92 status=variable vmaxpu=1.5 vminpu=0.92 daily="RES1_26_DO"  
New "Load.BT_1011780_M2" bus1="1001011780.1.4" phases=1 conn=Wye model=3 kv=0.220000000 kw = 0.262202 pf=0.92 status=variable vmaxpu=1.5 vminpu=0.92 daily="RES1_26_DO" 
New "Load.BT_4157265_1_M1" bus1="1004157265.1.2.3.4" phases=3 conn=Delta model=2 kv=0.220000000 kw = 0.2224145 pf=0.92 status=variable vmaxpu=1.5 vminpu=0.92 daily="RES1_2_DO"  
New "Load.BT_4157265_1_M2" bus1="1004157265.1.2.3.4" phases=3 conn=Delta model=3 kv=0.220000000 kw = 0.2224145 pf=0.92 status=variable vmaxpu=1.5 vminpu=0.92 daily="RES1_2_DO" 
New "Load.BT_1007937_M1" bus1="1001007937.1.4" phases=1 conn=Wye model=2 kv=0.220000000 kw = 0.1816005 pf=0.92 status=variable vmaxpu=1.5 vminpu=0.92 daily="RES1_11_DO"  
New "Load.BT_1007937_M2" bus1="1001007937.1.4" phases=1 conn=Wye model=3 kv=0.220000000 kw = 0.1816005 pf=0.92 status=variable vmaxpu=1.5 vminpu=0.92 daily="RES1_11_DO" 
New "Load.BT_1031254_M1" bus1="1001031254.1.2.3.4" phases=3 conn=Delta model=2 kv=0.220000000 kw = 0.3379145 pf=0.92 status=variable vmaxpu=1.5 vminpu=0.92 daily="RES1_2_DO"  
New "Load.BT_1031254_M2" bus1="1001031254.1.2.3.4" phases=3 conn=Delta model=3 kv=0.220000000 kw = 0.3379145 pf=0.92 status=variable vmaxpu=1.5 vminpu=0.92 daily="RES1_2_DO" 
New "Load.BT_1007517_1_M1" bus1="1001007517.1.2.3.4" phases=3 conn=Delta model=2 kv=0.220000000 kw = 0.13752 pf=0.92 status=variable vmaxpu=1.5 vminpu=0.92 daily="RES1_11_DO"  
New "Load.BT_1007517_1_M2" bus1="1001007517.1.2.3.4" phases=3 conn=Delta model=3 kv=0.220000000 kw = 0.13752 pf=0.92 status=variable vmaxpu=1.5 vminpu=0.92 daily="RES1_11_DO" 
New "Load.BT_994777_M1" bus1="1000994777.1.2.4" phases=1 conn=Delta model=2 kv=0.220000000 kw = 0.2888825 pf=0.92 status=variable vmaxpu=1.5 vminpu=0.92 daily="RES1_1_DO"  
New "Load.BT_994777_M2" bus1="1000994777.1.2.4" phases=1 conn=Delta model=3 kv=0.220000000 kw = 0.2888825 pf=0.92 status=variable vmaxpu=1.5 vminpu=0.92 daily="RES1_1_DO" 
New "Load.BT_6723455_1_M1" bus1="1006723455.1.2.4" phases=1 conn=Delta model=2 kv=0.220000000 kw = 0.6463525 pf=0.92 status=variable vmaxpu=1.5 vminpu=0.92 daily="RES1_9_DO"  
New "Load.BT_6723455_1_M2" bus1="1006723455.1.2.4" phases=1 conn=Delta model=3 kv=0.220000000 kw = 0.6463525 pf=0.92 status=variable vmaxpu=1.5 vminpu=0.92 daily="RES1_9_DO" 
New "Load.BT_1238356_M1" bus1="1001238356.1.2.3.4" phases=3 conn=Delta model=2 kv=0.220000000 kw = 0.0068615 pf=0.92 status=variable vmaxpu=1.5 vminpu=0.92 daily="RES1_18_DO"  
New "Load.BT_1238356_M2" bus1="1001238356.1.2.3.4" phases=3 conn=Delta model=3 kv=0.220000000 kw = 0.0068615 pf=0.92 status=variable vmaxpu=1.5 vminpu=0.92 daily="RES1_18_DO" 

New "Load.BT_1009939_M1" bus1="1001009939.1.4" phases=1 conn=Wye model=2 kv=0.220000000 kw = 0.012692 pf=0.92 status=variable vmaxpu=1.5 vminpu=0.92 daily="RES1_1_DO"  
New "Load.BT_1009939_M2" bus1="1001009939.1.4" phases=1 conn=Wye model=3 kv=0.220000000 kw = 0.012692 pf=0.92 status=variable vmaxpu=1.5 vminpu=0.92 daily="RES1_1_DO" 
New "Load.BT_10237022_2_M1" bus1="1010237022.1.2.3.4" phases=3 conn=Delta model=2 kv=0.220000000 kw = 0.4262075 pf=0.92 status=variable vmaxpu=1.5 vminpu=0.92 daily="RES1_16_DO"  
New "Load.BT_10237022_2_M2" bus1="1010237022.1.2.3.4" phases=3 conn=Delta model=3 kv=0.220000000 kw = 0.4262075 pf=0.92 status=variable vmaxpu=1.5 vminpu=0.92 daily="RES1_16_DO" 
New "Load.BT_6571282_M1" bus1="1006571282.2.4" phases=1 conn=Wye model=2 kv=0.220000000 kw = 0.358336 pf=0.92 status=variable vmaxpu=1.5 vminpu=0.92 daily="RES1_2_DO"  
New "Load.BT_6571282_M2" bus1="1006571282.2.4" phases=1 conn=Wye model=3 kv=0.220000000 kw = 0.358336 pf=0.92 status=variable vmaxpu=1.5 vminpu=0.92 daily="RES1_2_DO" 
New "Load.BT_1020733_2_M1" bus1="1001020733.1.2.3.4" phases=3 conn=Delta model=2 kv=0.220000000 kw = 0.1402665 pf=0.92 status=variable vmaxpu=1.5 vminpu=0.92 daily="RES1_11_DO"  
New "Load.BT_1020733_2_M2" bus1="1001020733.1.2.3.4" phases=3 conn=Delta model=3 kv=0.220000000 kw = 0.1402665 pf=0.92 status=variable vmaxpu=1.5 vminpu=0.92 daily="RES1_11_DO" 
New "Load.BT_1053255_1_M1" bus1="1001053255.1.2.3.4" phases=3 conn=Delta model=2 kv=0.220000000 kw = 0.1297 pf=0.92 status=variable vmaxpu=1.5 vminpu=0.92 daily="RES1_2_DO"  
New "Load.BT_1053255_1_M2" bus1="1001053255.1.2.3.4" phases=3 conn=Delta model=3 kv=0.220000000 kw = 0.1297 pf=0.92 status=variable vmaxpu=1.5 vminpu=0.92 daily="RES1_2_DO" 


New "Load.BT_1016645_1_M1" bus1="1001016645.1.2.4" phases=1 conn=Delta model=2 kv=0.220000000 kw = 0.012304 pf=0.92 status=variable vmaxpu=1.5 vminpu=0.92 daily="COM1_17_DO"  
New "Load.BT_1016645_1_M2" bus1="1001016645.1.2.4" phases=1 conn=Delta model=3 kv=0.220000000 kw = 0.012304 pf=0.92 status=variable vmaxpu=1.5 vminpu=0.92 daily="COM1_17_DO" 
New "Load.BT_1007874_M1" bus1="1001007874.3.4" phases=1 conn=Wye model=2 kv=0.220000000 kw = 0.089325 pf=0.92 status=variable vmaxpu=1.5 vminpu=0.92 daily="RES1_11_DO"  
New "Load.BT_1007874_M2" bus1="1001007874.3.4" phases=1 conn=Wye model=3 kv=0.220000000 kw = 0.089325 pf=0.92 status=variable vmaxpu=1.5 vminpu=0.92 daily="RES1_11_DO" 
New "Load.BT_4892538_M1" bus1="1004892538.1.2.4" phases=1 conn=Delta model=2 kv=0.220000000 kw = 0.373983 pf=0.92 status=variable vmaxpu=1.5 vminpu=0.92 daily="RES1_2_DO"  
New "Load.BT_4892538_M2" bus1="1004892538.1.2.4" phases=1 conn=Delta model=3 kv=0.220000000 kw = 0.373983 pf=0.92 status=variable vmaxpu=1.5 vminpu=0.92 daily="RES1_2_DO" 
New "Load.BT_992614_M1" bus1="1000992614.3.4" phases=1 conn=Wye model=2 kv=0.220000000 kw = 0.367386 pf=0.92 status=variable vmaxpu=1.5 vminpu=0.92 daily="RES1_1_DO"  
New "Load.BT_992614_M2" bus1="1000992614.3.4" phases=1 conn=Wye model=3 kv=0.220000000 kw = 0.367386 pf=0.92 status=variable vmaxpu=1.5 vminpu=0.92 daily="RES1_1_DO" 
New "Load.BT_1036770_M1" bus1="1001036770.1.2.3.4" phases=3 conn=Delta model=2 kv=0.220000000 kw = 0.0014725 pf=0.92 status=variable vmaxpu=1.5 vminpu=0.92 daily="RES1_19_DO"  
New "Load.BT_1036770_M2" bus1="1001036770.1.2.3.4" phases=3 conn=Delta model=3 kv=0.220000000 kw = 0.0014725 pf=0.92 status=variable vmaxpu=1.5 vminpu=0.92 daily="RES1_19_DO" 
New "Load.BT_1041894_1_M1" bus1="1001041894.1.2.3.4" phases=3 conn=Delta model=2 kv=0.220000000 kw = 0.474984 pf=0.92 status=variable vmaxpu=1.5 vminpu=0.92 daily="RES1_11_DO"  
New "Load.BT_1041894_1_M2" bus1="1001041894.1.2.3.4" phases=3 conn=Delta model=3 kv=0.220000000 kw = 0.474984 pf=0.92 status=variable vmaxpu=1.5 vminpu=0.92 daily="RES1_11_DO" 
New "Load.BT_1031338_M1" bus1="1001031338.1.2.3.4" phases=3 conn=Delta model=2 kv=0.220000000 kw = 1.101096 pf=0.92 status=variable vmaxpu=1.5 vminpu=0.92 daily="RES1_13_DO"  
New "Load.BT_1031338_M2" bus1="1001031338.1.2.3.4" phases=3 conn=Delta model=3 kv=0.220000000 kw = 1.101096 pf=0.92 status=variable vmaxpu=1.5 vminpu=0.92 daily="RES1_13_DO" 
New "Load.BT_1013796_3_M1" bus1="1001013796.1.2.3.4" phases=3 conn=Delta model=2 kv=0.220000000 kw = 0.187217 pf=0.92 status=variable vmaxpu=1.5 vminpu=0.92 daily="RES1_2_DO"  
New "Load.BT_1013796_3_M2" bus1="1001013796.1.2.3.4" phases=3 conn=Delta model=3 kv=0.220000000 kw = 0.187217 pf=0.92 status=variable vmaxpu=1.5 vminpu=0.92 daily="RES1_2_DO" 
New "Load.BT_1020516_1_M1" bus1="1001020516.1.2.3.4" phases=3 conn=Delta model=2 kv=0.220000000 kw = 1.1255 pf=0.92 status=variable vmaxpu=1.5 vminpu=0.92 daily="RES1_1_DO"  
New "Load.BT_1020516_1_M2" bus1="1001020516.1.2.3.4" phases=3 conn=Delta model=3 kv=0.220000000 kw = 1.1255 pf=0.92 status=variable vmaxpu=1.5 vminpu=0.92 daily="RES1_1_DO" 
New "Load.BT_10406746_M1" bus1="1010406746.1.2.4" phases=1 conn=Delta model=2 kv=0.220000000 kw = 0.277829 pf=0.92 status=variable vmaxpu=1.5 vminpu=0.92 daily="RES1_6_DO"  
New "Load.BT_10406746_M2" bus1="1010406746.1.2.4" phases=1 conn=Delta model=3 kv=0.220000000 kw = 0.277829 pf=0.92 status=variable vmaxpu=1.5 vminpu=0.92 daily="RES1_6_DO" 
New "Load.BT_1015350_1_M1" bus1="1001015350.3.4" phases=1 conn=Wye model=2 kv=0.220000000 kw = 0.189791 pf=0.92 status=variable vmaxpu=1.5 vminpu=0.92 daily="RES1_26_DO"  
New "Load.BT_1015350_1_M2" bus1="1001015350.3.4" phases=1 conn=Wye model=3 kv=0.220000000 kw = 0.189791 pf=0.92 status=variable vmaxpu=1.5 vminpu=0.92 daily="RES1_26_DO" 
New "Load.BT_1013796_4_M1" bus1="1001013796.1.2.3.4" phases=3 conn=Delta model=2 kv=0.220000000 kw = 0.0853725 pf=0.92 status=variable vmaxpu=1.5 vminpu=0.92 daily="RES1_2_DO"  
New "Load.BT_1013796_4_M2" bus1="1001013796.1.2.3.4" phases=3 conn=Delta model=3 kv=0.220000000 kw = 0.0853725 pf=0.92 status=variable vmaxpu=1.5 vminpu=0.92 daily="RES1_2_DO" 
New "Load.BT_1024660_1_M1" bus1="1001024660.1.2.3.4" phases=3 conn=Delta model=2 kv=0.220000000 kw = 0.017202 pf=0.92 status=variable vmaxpu=1.5 vminpu=0.92 daily="RES1_2_DO"  
New "Load.BT_1024660_1_M2" bus1="1001024660.1.2.3.4" phases=3 conn=Delta model=3 kv=0.220000000 kw = 0.017202 pf=0.92 status=variable vmaxpu=1.5 vminpu=0.92 daily="RES1_2_DO" 
New "Load.BT_1204112_1_M1" bus1="1001204112.1.2.3.4" phases=3 conn=Delta model=2 kv=0.220000000 kw = 0.751189 pf=0.92 status=variable vmaxpu=1.5 vminpu=0.92 daily="RES1_1_DO"  
New "Load.BT_1204112_1_M2" bus1="1001204112.1.2.3.4" phases=3 conn=Delta model=3 kv=0.220000000 kw = 0.751189 pf=0.92 status=variable vmaxpu=1.5 vminpu=0.92 daily="RES1_1_DO" 
New "Load.BT_1034684_M1" bus1="1001034684.1.2.3.4" phases=3 conn=Delta model=2 kv=0.220000000 kw = 0.530386 pf=0.92 status=variable vmaxpu=1.5 vminpu=0.92 daily="RES1_19_DO"  
New "Load.BT_1034684_M2" bus1="1001034684.1.2.3.4" phases=3 conn=Delta model=3 kv=0.220000000 kw = 0.530386 pf=0.92 status=variable vmaxpu=1.5 vminpu=0.92 daily="RES1_19_DO" 
New "Load.BT_4928714_1_M1" bus1="1004928714.1.2.3.4" phases=3 conn=Delta model=2 kv=0.220000000 kw = 0.205875 pf=0.92 status=variable vmaxpu=1.5 vminpu=0.92 daily="COM1_21_DO"  
New "Load.BT_4928714_1_M2" bus1="1004928714.1.2.3.4" phases=3 conn=Delta model=3 kv=0.220000000 kw = 0.205875 pf=0.92 status=variable vmaxpu=1.5 vminpu=0.92 daily="COM1_21_DO" 
New "Load.BT_1033844_M1" bus1="1001033844.1.2.3.4" phases=3 conn=Delta model=2 kv=0.220000000 kw = 1.5138865 pf=0.92 status=variable vmaxpu=1.5 vminpu=0.92 daily="COM1_21_DO"  
New "Load.BT_1033844_M2" bus1="1001033844.1.2.3.4" phases=3 conn=Delta model=3 kv=0.220000000 kw = 1.5138865 pf=0.92 status=variable vmaxpu=1.5 vminpu=0.92 daily="COM1_21_DO" 
New "Load.BT_990913_M1" bus1="1000990913.3.4" phases=1 conn=Wye model=2 kv=0.220000000 kw = 0.1406625 pf=0.92 status=variable vmaxpu=1.5 vminpu=0.92 daily="RES1_1_DO"  
New "Load.BT_990913_M2" bus1="1000990913.3.4" phases=1 conn=Wye model=3 kv=0.220000000 kw = 0.1406625 pf=0.92 status=variable vmaxpu=1.5 vminpu=0.92 daily="RES1_1_DO" 
New "Load.BT_1025017_2_M1" bus1="1001025017.1.2.3.4" phases=3 conn=Delta model=2 kv=0.220000000 kw = 0.2085405 pf=0.92 status=variable vmaxpu=1.5 vminpu=0.92 daily="RES1_2_DO"  
New "Load.BT_1025017_2_M2" bus1="1001025017.1.2.3.4" phases=3 conn=Delta model=3 kv=0.220000000 kw = 0.2085405 pf=0.92 status=variable vmaxpu=1.5 vminpu=0.92 daily="RES1_2_DO" 
New "Load.BT_1016722_1_M1" bus1="1001016722.1.2.3.4" phases=3 conn=Delta model=2 kv=0.220000000 kw = 0.100344 pf=0.92 status=variable vmaxpu=1.5 vminpu=0.92 daily="RES1_12_DO"  
New "Load.BT_1016722_1_M2" bus1="1001016722.1.2.3.4" phases=3 conn=Delta model=3 kv=0.220000000 kw = 0.100344 pf=0.92 status=variable vmaxpu=1.5 vminpu=0.92 daily="RES1_12_DO" 
New "Load.BT_4555663_M1" bus1="1004555663.1.2.3.4" phases=3 conn=Delta model=2 kv=0.220000000 kw = 0.4131735 pf=0.92 status=variable vmaxpu=1.5 vminpu=0.92 daily="RES1_6_DO"  
New "Load.BT_4555663_M2" bus1="1004555663.1.2.3.4" phases=3 conn=Delta model=3 kv=0.220000000 kw = 0.4131735 pf=0.92 status=variable vmaxpu=1.5 vminpu=0.92 daily="RES1_6_DO" 

New "Load.BT_1024940_2_M1" bus1="1001024940.1.2.3.4" phases=3 conn=Delta model=2 kv=0.220000000 kw = 0.0013685 pf=0.92 status=variable vmaxpu=1.5 vminpu=0.92 daily="RES1_2_DO"  
New "Load.BT_1024940_2_M2" bus1="1001024940.1.2.3.4" phases=3 conn=Delta model=3 kv=0.220000000 kw = 0.0013685 pf=0.92 status=variable vmaxpu=1.5 vminpu=0.92 daily="RES1_2_DO" 
New "Load.BT_3956057_1_M1" bus1="1003956057.1.2.4" phases=1 conn=Delta model=2 kv=0.220000000 kw = 0.0873325 pf=0.92 status=variable vmaxpu=1.5 vminpu=0.92 daily="RES1_2_DO"  
New "Load.BT_3956057_1_M2" bus1="1003956057.1.2.4" phases=1 conn=Delta model=3 kv=0.220000000 kw = 0.0873325 pf=0.92 status=variable vmaxpu=1.5 vminpu=0.92 daily="RES1_2_DO" 
New "Load.BT_1022945_1_M1" bus1="1001022945.1.2.3.4" phases=3 conn=Delta model=2 kv=0.220000000 kw = 0.222857 pf=0.92 status=variable vmaxpu=1.5 vminpu=0.92 daily="RES1_16_DO"  
New "Load.BT_1022945_1_M2" bus1="1001022945.1.2.3.4" phases=3 conn=Delta model=3 kv=0.220000000 kw = 0.222857 pf=0.92 status=variable vmaxpu=1.5 vminpu=0.92 daily="RES1_16_DO" 
New "Load.BT_994385_M1" bus1="1000994385.1.4" phases=1 conn=Wye model=2 kv=0.220000000 kw = 0.2769315 pf=0.92 status=variable vmaxpu=1.5 vminpu=0.92 daily="RES1_1_DO"  
New "Load.BT_994385_M2" bus1="1000994385.1.4" phases=1 conn=Wye model=3 kv=0.220000000 kw = 0.2769315 pf=0.92 status=variable vmaxpu=1.5 vminpu=0.92 daily="RES1_1_DO" 
New "Load.BT_1012522_1_M1" bus1="1001012522.1.2.3.4" phases=3 conn=Delta model=2 kv=0.220000000 kw = 0.129077 pf=0.92 status=variable vmaxpu=1.5 vminpu=0.92 daily="RES1_11_DO"  
New "Load.BT_1012522_1_M2" bus1="1001012522.1.2.3.4" phases=3 conn=Delta model=3 kv=0.220000000 kw = 0.129077 pf=0.92 status=variable vmaxpu=1.5 vminpu=0.92 daily="RES1_11_DO" 
New "Load.BT_1014937_M1" bus1="1001014937.2.4" phases=1 conn=Wye model=2 kv=0.220000000 kw = 0.233693 pf=0.92 status=variable vmaxpu=1.5 vminpu=0.92 daily="RES1_3_DO"  
New "Load.BT_1014937_M2" bus1="1001014937.2.4" phases=1 conn=Wye model=3 kv=0.220000000 kw = 0.233693 pf=0.92 status=variable vmaxpu=1.5 vminpu=0.92 daily="RES1_3_DO" 
New "Load.BT_4915512_M1" bus1="1004915512.1.2.4" phases=1 conn=Delta model=2 kv=0.220000000 kw = 0.194076 pf=0.92 status=variable vmaxpu=1.5 vminpu=0.92 daily="RES1_7_DO"  
New "Load.BT_4915512_M2" bus1="1004915512.1.2.4" phases=1 conn=Delta model=3 kv=0.220000000 kw = 0.194076 pf=0.92 status=variable vmaxpu=1.5 vminpu=0.92 daily="RES1_7_DO" 
New "Load.BT_992740_1_M1" bus1="1000992740.3.1.4" phases=1 conn=Delta model=2 kv=0.220000000 kw = 0.1325445 pf=0.92 status=variable vmaxpu=1.5 vminpu=0.92 daily="RES1_1_DO"  
New "Load.BT_992740_1_M2" bus1="1000992740.3.1.4" phases=1 conn=Delta model=3 kv=0.220000000 kw = 0.1325445 pf=0.92 status=variable vmaxpu=1.5 vminpu=0.92 daily="RES1_1_DO" 
New "Load.BT_3729285_1_M1" bus1="1003729285.3.4" phases=1 conn=Wye model=2 kv=0.220000000 kw = 0.1521795 pf=0.92 status=variable vmaxpu=1.5 vminpu=0.92 daily="RES1_1_DO"  
New "Load.BT_3729285_1_M2" bus1="1003729285.3.4" phases=1 conn=Wye model=3 kv=0.220000000 kw = 0.1521795 pf=0.92 status=variable vmaxpu=1.5 vminpu=0.92 daily="RES1_1_DO" 
New "Load.BT_1011528_M1" bus1="1001011528.2.4" phases=1 conn=Wye model=2 kv=0.220000000 kw = 0.504216 pf=0.92 status=variable vmaxpu=1.5 vminpu=0.92 daily="RES1_26_DO"  
New "Load.BT_1011528_M2" bus1="1001011528.2.4" phases=1 conn=Wye model=3 kv=0.220000000 kw = 0.504216 pf=0.92 status=variable vmaxpu=1.5 vminpu=0.92 daily="RES1_26_DO" 
New "Load.BT_1033809_2_M1" bus1="1001033809.1.2.3.4" phases=3 conn=Delta model=2 kv=0.220000000 kw = 0.288734 pf=0.92 status=variable vmaxpu=1.5 vminpu=0.92 daily="RES1_2_DO"  
New "Load.BT_1033809_2_M2" bus1="1001033809.1.2.3.4" phases=3 conn=Delta model=3 kv=0.220000000 kw = 0.288734 pf=0.92 status=variable vmaxpu=1.5 vminpu=0.92 daily="RES1_2_DO" 
New "Load.BT_5093725_M1" bus1="1005093725.2.3.4" phases=1 conn=Delta model=2 kv=0.220000000 kw = 0.5498145 pf=0.92 status=variable vmaxpu=1.5 vminpu=0.92 daily="RES1_2_DO"  
New "Load.BT_5093725_M2" bus1="1005093725.2.3.4" phases=1 conn=Delta model=3 kv=0.220000000 kw = 0.5498145 pf=0.92 status=variable vmaxpu=1.5 vminpu=0.92 daily="RES1_2_DO" 
New "Load.BT_10215124_1_M1" bus1="1010215124.1.2.3.4" phases=3 conn=Delta model=2 kv=0.220000000 kw = 0.0221465 pf=0.92 status=variable vmaxpu=1.5 vminpu=0.92 daily="RES1_17_DO"  
New "Load.BT_10215124_1_M2" bus1="1010215124.1.2.3.4" phases=3 conn=Delta model=3 kv=0.220000000 kw = 0.0221465 pf=0.92 status=variable vmaxpu=1.5 vminpu=0.92 daily="RES1_17_DO" 
New "Load.BT_1219386_M1" bus1="1001219386.3.1.4" phases=1 conn=Delta model=2 kv=0.220000000 kw = 0.3106475 pf=0.92 status=variable vmaxpu=1.5 vminpu=0.92 daily="RES1_7_DO"  
New "Load.BT_1219386_M2" bus1="1001219386.3.1.4" phases=1 conn=Delta model=3 kv=0.220000000 kw = 0.3106475 pf=0.92 status=variable vmaxpu=1.5 vminpu=0.92 daily="RES1_7_DO" 
New "Load.BT_1053255_2_M1" bus1="1001053255.1.2.3.4" phases=3 conn=Delta model=2 kv=0.220000000 kw = 0.10623 pf=0.92 status=variable vmaxpu=1.5 vminpu=0.92 daily="RES1_2_DO"  
New "Load.BT_1053255_2_M2" bus1="1001053255.1.2.3.4" phases=3 conn=Delta model=3 kv=0.220000000 kw = 0.10623 pf=0.92 status=variable vmaxpu=1.5 vminpu=0.92 daily="RES1_2_DO" 
New "Load.BT_4593631_1_M1" bus1="1004593631.1.2.4" phases=1 conn=Delta model=2 kv=0.220000000 kw = 0.268394 pf=0.92 status=variable vmaxpu=1.5 vminpu=0.92 daily="RES1_16_DO"  
New "Load.BT_4593631_1_M2" bus1="1004593631.1.2.4" phases=1 conn=Delta model=3 kv=0.220000000 kw = 0.268394 pf=0.92 status=variable vmaxpu=1.5 vminpu=0.92 daily="RES1_16_DO" 
New "Load.BT_1013796_5_M1" bus1="1001013796.1.2.3.4" phases=3 conn=Delta model=2 kv=0.220000000 kw = 0.3590205 pf=0.92 status=variable vmaxpu=1.5 vminpu=0.92 daily="RES1_2_DO"  
New "Load.BT_1013796_5_M2" bus1="1001013796.1.2.3.4" phases=3 conn=Delta model=3 kv=0.220000000 kw = 0.3590205 pf=0.92 status=variable vmaxpu=1.5 vminpu=0.92 daily="RES1_2_DO" 
New "Load.BT_994301_1_M1" bus1="1000994301.1.2.4" phases=1 conn=Delta model=2 kv=0.220000000 kw = 0.220501 pf=0.92 status=variable vmaxpu=1.5 vminpu=0.92 daily="RES1_2_DO"  
New "Load.BT_994301_1_M2" bus1="1000994301.1.2.4" phases=1 conn=Delta model=3 kv=0.220000000 kw = 0.220501 pf=0.92 status=variable vmaxpu=1.5 vminpu=0.92 daily="RES1_2_DO" 
New "Load.BT_1042216_2_M1" bus1="1001042216.1.2.3.4" phases=3 conn=Delta model=2 kv=0.220000000 kw = 0.3244715 pf=0.92 status=variable vmaxpu=1.5 vminpu=0.92 daily="RES1_19_DO"  
New "Load.BT_1042216_2_M2" bus1="1001042216.1.2.3.4" phases=3 conn=Delta model=3 kv=0.220000000 kw = 0.3244715 pf=0.92 status=variable vmaxpu=1.5 vminpu=0.92 daily="RES1_19_DO" 

New "Load.BT_6474843_2_M1" bus1="1006474843.1.2.3.4" phases=3 conn=Delta model=2 kv=0.220000000 kw = 0.2111565 pf=0.92 status=variable vmaxpu=1.5 vminpu=0.92 daily="RES1_1_DO"  
New "Load.BT_6474843_2_M2" bus1="1006474843.1.2.3.4" phases=3 conn=Delta model=3 kv=0.220000000 kw = 0.2111565 pf=0.92 status=variable vmaxpu=1.5 vminpu=0.92 daily="RES1_1_DO" 
New "Load.BT_1036616_1_M1" bus1="1001036616.1.2.3.4" phases=3 conn=Delta model=2 kv=0.220000000 kw = 0.1712025 pf=0.92 status=variable vmaxpu=1.5 vminpu=0.92 daily="RES1_19_DO"  
New "Load.BT_1036616_1_M2" bus1="1001036616.1.2.3.4" phases=3 conn=Delta model=3 kv=0.220000000 kw = 0.1712025 pf=0.92 status=variable vmaxpu=1.5 vminpu=0.92 daily="RES1_19_DO" 

New "Load.BT_1008028_1_M1" bus1="1001008028.3.4" phases=1 conn=Wye model=2 kv=0.220000000 kw = 0.1592205 pf=0.92 status=variable vmaxpu=1.5 vminpu=0.92 daily="RES1_11_DO"  
New "Load.BT_1008028_1_M2" bus1="1001008028.3.4" phases=1 conn=Wye model=3 kv=0.220000000 kw = 0.1592205 pf=0.92 status=variable vmaxpu=1.5 vminpu=0.92 daily="RES1_11_DO" 
New "Load.BT_3796058_M1" bus1="1003796058.1.2.3.4" phases=3 conn=Delta model=2 kv=0.220000000 kw = 0.0 pf=0.92 status=variable vmaxpu=1.5 vminpu=0.92 daily="RES1_7_DO"  
New "Load.BT_3796058_M2" bus1="1003796058.1.2.3.4" phases=3 conn=Delta model=3 kv=0.220000000 kw = 0.0 pf=0.92 status=variable vmaxpu=1.5 vminpu=0.92 daily="RES1_7_DO" 
New "Load.BT_1007916_M1" bus1="1001007916.1.2.4" phases=1 conn=Delta model=2 kv=0.220000000 kw = 0.131464 pf=0.92 status=variable vmaxpu=1.5 vminpu=0.92 daily="RES1_11_DO"  
New "Load.BT_1007916_M2" bus1="1001007916.1.2.4" phases=1 conn=Delta model=3 kv=0.220000000 kw = 0.131464 pf=0.92 status=variable vmaxpu=1.5 vminpu=0.92 daily="RES1_11_DO" 
New "Load.BT_1023988_1_M1" bus1="1001023988.1.2.3.4" phases=3 conn=Delta model=2 kv=0.220000000 kw = 0.355052 pf=0.92 status=variable vmaxpu=1.5 vminpu=0.92 daily="RES1_24_DO"  
New "Load.BT_1023988_1_M2" bus1="1001023988.1.2.3.4" phases=3 conn=Delta model=3 kv=0.220000000 kw = 0.355052 pf=0.92 status=variable vmaxpu=1.5 vminpu=0.92 daily="RES1_24_DO" 
New "Load.BT_992607_M1" bus1="1000992607.1.2.4" phases=1 conn=Delta model=2 kv=0.220000000 kw = 0.2238665 pf=0.92 status=variable vmaxpu=1.5 vminpu=0.92 daily="RES1_1_DO"  
New "Load.BT_992607_M2" bus1="1000992607.1.2.4" phases=1 conn=Delta model=3 kv=0.220000000 kw = 0.2238665 pf=0.92 status=variable vmaxpu=1.5 vminpu=0.92 daily="RES1_1_DO" 
New "Load.BT_1018367_M1" bus1="1001018367.2.3.4" phases=1 conn=Delta model=2 kv=0.220000000 kw = 0.436145 pf=0.92 status=variable vmaxpu=1.5 vminpu=0.92 daily="RES1_4_DO"  
New "Load.BT_1018367_M2" bus1="1001018367.2.3.4" phases=1 conn=Delta model=3 kv=0.220000000 kw = 0.436145 pf=0.92 status=variable vmaxpu=1.5 vminpu=0.92 daily="RES1_4_DO" 
New "Load.BT_998417_M1" bus1="1000998417.2.4" phases=1 conn=Wye model=2 kv=0.120000000 kw = 0.0675135 pf=0.92 status=variable vmaxpu=1.5 vminpu=0.92 daily="RES1_10_DO"  
New "Load.BT_998417_M2" bus1="1000998417.2.4" phases=1 conn=Wye model=3 kv=0.120000000 kw = 0.0675135 pf=0.92 status=variable vmaxpu=1.5 vminpu=0.92 daily="RES1_10_DO" 
New "Load.BT_1020502_M1" bus1="1001020502.2.4" phases=1 conn=Wye model=2 kv=0.220000000 kw = 0.062819 pf=0.92 status=variable vmaxpu=1.5 vminpu=0.92 daily="RES1_7_DO"  
New "Load.BT_1020502_M2" bus1="1001020502.2.4" phases=1 conn=Wye model=3 kv=0.220000000 kw = 0.062819 pf=0.92 status=variable vmaxpu=1.5 vminpu=0.92 daily="RES1_7_DO" 

New "Load.BT_1033809_3_M1" bus1="1001033809.1.2.3.4" phases=3 conn=Delta model=2 kv=0.220000000 kw = 0.3409785 pf=0.92 status=variable vmaxpu=1.5 vminpu=0.92 daily="RES1_2_DO"  
New "Load.BT_1033809_3_M2" bus1="1001033809.1.2.3.4" phases=3 conn=Delta model=3 kv=0.220000000 kw = 0.3409785 pf=0.92 status=variable vmaxpu=1.5 vminpu=0.92 daily="RES1_2_DO" 
New "Load.BT_1017506_M1" bus1="1001017506.1.2.3.4" phases=3 conn=Delta model=2 kv=0.220000000 kw = 0.1093245 pf=0.92 status=variable vmaxpu=1.5 vminpu=0.92 daily="COM1_11_DO"  
New "Load.BT_1017506_M2" bus1="1001017506.1.2.3.4" phases=3 conn=Delta model=3 kv=0.220000000 kw = 0.1093245 pf=0.92 status=variable vmaxpu=1.5 vminpu=0.92 daily="COM1_11_DO" 
New "Load.BT_6474843_3_M1" bus1="1006474843.1.2.3.4" phases=3 conn=Delta model=2 kv=0.220000000 kw = 0.2222035 pf=0.92 status=variable vmaxpu=1.5 vminpu=0.92 daily="RES1_1_DO"  
New "Load.BT_6474843_3_M2" bus1="1006474843.1.2.3.4" phases=3 conn=Delta model=3 kv=0.220000000 kw = 0.2222035 pf=0.92 status=variable vmaxpu=1.5 vminpu=0.92 daily="RES1_1_DO" 
New "Load.BT_1021748_M1" bus1="1001021748.2.4" phases=1 conn=Wye model=2 kv=0.220000000 kw = 0.226876 pf=0.92 status=variable vmaxpu=1.5 vminpu=0.92 daily="RES1_7_DO"  
New "Load.BT_1021748_M2" bus1="1001021748.2.4" phases=1 conn=Wye model=3 kv=0.220000000 kw = 0.226876 pf=0.92 status=variable vmaxpu=1.5 vminpu=0.92 daily="RES1_7_DO" 
New "Load.BT_4138897_M1" bus1="1004138897.1.2.4" phases=1 conn=Delta model=2 kv=0.220000000 kw = 0.8176265 pf=0.92 status=variable vmaxpu=1.5 vminpu=0.92 daily="RES1_3_DO"  
New "Load.BT_4138897_M2" bus1="1004138897.1.2.4" phases=1 conn=Delta model=3 kv=0.220000000 kw = 0.8176265 pf=0.92 status=variable vmaxpu=1.5 vminpu=0.92 daily="RES1_3_DO" 
New "Load.BT_10215124_2_M1" bus1="1010215124.1.2.3.4" phases=3 conn=Delta model=2 kv=0.220000000 kw = 0.0 pf=0.92 status=variable vmaxpu=1.5 vminpu=0.92 daily="RES1_17_DO"  
New "Load.BT_10215124_2_M2" bus1="1010215124.1.2.3.4" phases=3 conn=Delta model=3 kv=0.220000000 kw = 0.0 pf=0.92 status=variable vmaxpu=1.5 vminpu=0.92 daily="RES1_17_DO" 
New "Load.BT_1018962_1_M1" bus1="1001018962.3.4" phases=1 conn=Wye model=2 kv=0.220000000 kw = 0.1030205 pf=0.92 status=variable vmaxpu=1.5 vminpu=0.92 daily="RES1_4_DO"  
New "Load.BT_1018962_1_M2" bus1="1001018962.3.4" phases=1 conn=Wye model=3 kv=0.220000000 kw = 0.1030205 pf=0.92 status=variable vmaxpu=1.5 vminpu=0.92 daily="RES1_4_DO" 
...